AMOSTRA/MOL/Trafos.dss
! ==========================================================
! TRANSFORMADORES DE DISTRIBUICAO — gerados de UNTRMT/EQTRMT
! Secundario 1F/2F: 3 enrolamentos com derivacao central
! Neutro no no 4, aterrado em _ATERRAMENTO.dss
! Kv de BT conforme TEN_LIN_SE da BDGD
! ==========================================================
New Transformer.3099482 phases=1 windings=3 Xhl=1.200 Xht=1.200 Xlt=0.600
~ wdg=1 bus=25528-12344984.3.1 conn=wye Kv=13.8000 Kva=10.0 %R=0.500
~ wdg=2 bus=3099482-12345001.1.4 conn=wye Kv=0.1270 Kva=10.0 %R=0.500
~ wdg=3 bus=3099482-12345001.4.2 conn=wye Kv=0.1270 Kva=10.0 %R=0.500
New Transformer.3055908 phases=1 windings=3 Xhl=1.200 Xht=1.200 Xlt=0.600
~ wdg=1 bus=25529-12058314.3.1 conn=wye Kv=13.8000 Kva=10.0 %R=0.500
~ wdg=2 bus=3055908-12058314v.1.4 conn=wye Kv=0.1270 Kva=10.0 %R=0.500
~ wdg=3 bus=3055908-12058314v.4.2 conn=wye Kv=0.1270 Kva=10.0 %R=0.500
New Transformer.3100286 phases=1 windings=3 Xhl=1.200 Xht=1.200 Xlt=0.600
~ wdg=1 bus=25529-12349509.2.3 conn=wye Kv=13.8000 Kva=5.0 %R=0.500
~ wdg=2 bus=3100286-12349509v.1.4 conn=wye Kv=0.1270 Kva=5.0 %R=0.500
~ wdg=3 bus=3100286-12349509v.4.2 conn=wye Kv=0.1270 Kva=5.0 %R=0.500
New Transformer.3099460 phases=1 windings=3 Xhl=1.200 Xht=1.200 Xlt=0.600
~ wdg=1 bus=25528-12344893.3.1 conn=wye Kv=13.8000 Kva=5.0 %R=0.500
~ wdg=2 bus=3099460-12344893v.1.4 conn=wye Kv=0.1270 Kva=5.0 %R=0.500
~ wdg=3 bus=3099460-12344893v.4.2 conn=wye Kv=0.1270 Kva=5.0 %R=0.500
New Transformer.3099491 phases=1 windings=3 Xhl=1.200 Xht=1.200 Xlt=0.600
~ wdg=1 bus=25528-12345049.3.1 conn=wye Kv=13.8000 Kva=5.0 %R=0.500
~ wdg=2 bus=3099491-12345049v.1.4 conn=wye Kv=0.1270 Kva=5.0 %R=0.500
~ wdg=3 bus=3099491-12345049v.4.2 conn=wye Kv=0.1270 Kva=5.0 %R=0.500
New Transformer.3100293 phases=1 windings=3 Xhl=1.200 Xht=1.200 Xlt=0.600
~ wdg=1 bus=25529-12349528.2.3 conn=wye Kv=13.8000 Kva=10.0 %R=0.500
~ wdg=2 bus=3100293-12349540.1.4 conn=wye Kv=0.1270 Kva=10.0 %R=0.500
~ wdg=3 bus=3100293-12349540.4.2 conn=wye Kv=0.1270 Kva=10.0 %R=0.500
New Transformer.3191526 phases=1 windings=3 Xhl=1.200 Xht=1.200 Xlt=0.600
~ wdg=1 bus=25529-12986246.1.2 conn=wye Kv=13.8000 Kva=5.0 %R=0.500
~ wdg=2 bus=3191526-12986246v.1.4 conn=wye Kv=0.1270 Kva=5.0 %R=0.500
~ wdg=3 bus=3191526-12986246v.4.2 conn=wye Kv=0.1270 Kva=5.0 %R=0.500
New Transformer.3099504 phases=1 windings=3 Xhl=1.200 Xht=1.200 Xlt=0.600
~ wdg=1 bus=25528-12345111.3.1 conn=wye Kv=13.8000 Kva=5.0 %R=0.500
~ wdg=2 bus=3099504-12345111v.1.4 conn=wye Kv=0.1270 Kva=5.0 %R=0.500
~ wdg=3 bus=3099504-12345111v.4.2 conn=wye Kv=0.1270 Kva=5.0 %R=0.500
New Transformer.3099496 phases=1 windings=3 Xhl=1.200 Xht=1.200 Xlt=0.600
~ wdg=1 bus=25528-12345074.3.1 conn=wye Kv=13.8000 Kva=5.0 %R=0.500
~ wdg=2 bus=3099496-12345074v.1.4 conn=wye Kv=0.1270 Kva=5.0 %R=0.500
~ wdg=3 bus=3099496-12345074v.4.2 conn=wye Kv=0.1270 Kva=5.0 %R=0.500
New Transformer.3099497 phases=1 windings=3 Xhl=1.200 Xht=1.200 Xlt=0.600
~ wdg=1 bus=25528-12345068.3.1 conn=wye Kv=13.8000 Kva=5.0 %R=0.500
~ wdg=2 bus=3099497-12345068v.1.4 conn=wye Kv=0.1270 Kva=5.0 %R=0.500
~ wdg=3 bus=3099497-12345068v.4.2 conn=wye Kv=0.1270 Kva=5.0 %R=0.500
New Transformer.3100260 phases=1 windings=3 Xhl=1.200 Xht=1.200 Xlt=0.600
~ wdg=1 bus=25529-12349337.2.3 conn=wye Kv=13.8000 Kva=15.0 %R=0.500
~ wdg=2 bus=3100260-12349469.1.4 conn=wye Kv=0.1270 Kva=15.0 %R=0.500
~ wdg=3 bus=3100260-12349469.4.2 conn=wye Kv=0.1270 Kva=15.0 %R=0.500
New Transformer.3100253 phases=1 windings=3 Xhl=1.200 Xht=1.200 Xlt=0.600
~ wdg=1 bus=25529-12349321.2.3 conn=wye Kv=13.8000 Kva=10.0 %R=0.500
~ wdg=2 bus=3100253-12349322.1.4 conn=wye Kv=0.1270 Kva=10.0 %R=0.500
~ wdg=3 bus=3100253-12349322.4.2 conn=wye Kv=0.1270 Kva=10.0 %R=0.500
New Transformer.3099464 phases=1 windings=3 Xhl=1.200 Xht=1.200 Xlt=0.600
~ wdg=1 bus=25528-12344896.3.1 conn=wye Kv=13.8000 Kva=5.0 %R=0.500
~ wdg=2 bus=3099464-12344896v.1.4 conn=wye Kv=0.1270 Kva=5.0 %R=0.500
~ wdg=3 bus=3099464-12344896v.4.2 conn=wye Kv=0.1270 Kva=5.0 %R=0.500
New Transformer.3099473 phases=1 windings=3 Xhl=1.200 Xht=1.200 Xlt=0.600
~ wdg=1 bus=25528-12344938.3.1 conn=wye Kv=13.8000 Kva=5.0 %R=0.500
~ wdg=2 bus=3099473-12344938v.1.4 conn=wye Kv=0.1270 Kva=5.0 %R=0.500
~ wdg=3 bus=3099473-12344938v.4.2 conn=wye Kv=0.1270 Kva=5.0 %R=0.500
New Transformer.3100292 phases=1 windings=3 Xhl=1.200 Xht=1.200 Xlt=0.600
~ wdg=1 bus=25529-12349522.2.3 conn=wye Kv=13.8000 Kva=10.0 %R=0.500
~ wdg=2 bus=3100292-12349533.1.4 conn=wye Kv=0.1270 Kva=10.0 %R=0.500
~ wdg=3 bus=3100292-12349533.4.2 conn=wye Kv=0.1270 Kva=10.0 %R=0.500
New Transformer.3099501 phases=1 windings=3 Xhl=1.200 Xht=1.200 Xlt=0.600
~ wdg=1 bus=25528-12345102.3.1 conn=wye Kv=13.8000 Kva=5.0 %R=0.500
~ wdg=2 bus=3099501-12345102v.1.4 conn=wye Kv=0.1270 Kva=5.0 %R=0.500
~ wdg=3 bus=3099501-12345102v.4.2 conn=wye Kv=0.1270 Kva=5.0 %R=0.500
New Transformer.3099483 phases=1 windings=3 Xhl=1.200 Xht=1.200 Xlt=0.600
~ wdg=1 bus=25528-12345015.3.1 conn=wye Kv=13.8000 Kva=5.0 %R=0.500
~ wdg=2 bus=3099483-12345015v.1.4 conn=wye Kv=0.1270 Kva=5.0 %R=0.500
~ wdg=3 bus=3099483-12345015v.4.2 conn=wye Kv=0.1270 Kva=5.0 %R=0.500
New Transformer.3099480 phases=1 windings=3 Xhl=1.200 Xht=1.200 Xlt=0.600
~ wdg=1 bus=25528-12344976.3.1 conn=wye Kv=13.8000 Kva=5.0 %R=0.500
~ wdg=2 bus=3099480-12344976v.1.4 conn=wye Kv=0.1270 Kva=5.0 %R=0.500
~ wdg=3 bus=3099480-12344976v.4.2 conn=wye Kv=0.1270 Kva=5.0 %R=0.500
New Transformer.3099487 phases=1 windings=3 Xhl=1.200 Xht=1.200 Xlt=0.600
~ wdg=1 bus=25528-12345035.3.1 conn=wye Kv=13.8000 Kva=10.0 %R=0.500
~ wdg=2 bus=3099487-12345042.1.4 conn=wye Kv=0.1270 Kva=10.0 %R=0.500
~ wdg=3 bus=3099487-12345042.4.2 conn=wye Kv=0.1270 Kva=10.0 %R=0.500
New Transformer.3099484 phases=1 windings=3 Xhl=1.200 Xht=1.200 Xlt=0.600
~ wdg=1 bus=25528-12345025.3.1 conn=wye Kv=13.8000 Kva=5.0 %R=0.500
~ wdg=2 bus=3099484-12345025v.1.4 conn=wye Kv=0.1270 Kva=5.0 %R=0.500
~ wdg=3 bus=3099484-12345025v.4.2 conn=wye Kv=0.1270 Kva=5.0 %R=0.500
New Transformer.3100255 phases=1 windings=3 Xhl=1.200 Xht=1.200 Xlt=0.600
~ wdg=1 bus=25529-12349327.2.3 conn=wye Kv=13.8000 Kva=10.0 %R=0.500
~ wdg=2 bus=3100255-12349327v.1.4 conn=wye Kv=0.1270 Kva=10.0 %R=0.500
~ wdg=3 bus=3100255-12349327v.4.2 conn=wye Kv=0.1270 Kva=10.0 %R=0.500
New Transformer.3099485 phases=1 windings=3 Xhl=1.200 Xht=1.200 Xlt=0.600
~ wdg=1 bus=25528-12345029.3.1 conn=wye Kv=13.8000 Kva=5.0 %R=0.500
~ wdg=2 bus=3099485-12345029v.1.4 conn=wye Kv=0.1270 Kva=5.0 %R=0.500
~ wdg=3 bus=3099485-12345029v.4.2 conn=wye Kv=0.1270 Kva=5.0 %R=0.500
New Transformer.3092008 phases=1 windings=3 Xhl=1.200 Xht=1.200 Xlt=0.600
~ wdg=1 bus=25527-9362165.1 conn=wye Kv=7.9674 Kva=10.0 %R=0.500
~ wdg=2 bus=3092008-9362165v.1.4 conn=wye Kv=0.1100 Kva=10.0 %R=0.500
~ wdg=3 bus=3092008-9362165v.4.2 conn=wye Kv=0.1100 Kva=10.0 %R=0.500
New Transformer.3100287 phases=1 windings=3 Xhl=1.200 Xht=1.200 Xlt=0.600
~ wdg=1 bus=25529-12349511.2.3 conn=wye Kv=13.8000 Kva=5.0 %R=0.500
~ wdg=2 bus=3100287-12349511v.1.4 conn=wye Kv=0.1270 Kva=5.0 %R=0.500
~ wdg=3 bus=3100287-12349511v.4.2 conn=wye Kv=0.1270 Kva=5.0 %R=0.500
New Transformer.3099505 phases=1 windings=3 Xhl=1.200 Xht=1.200 Xlt=0.600
~ wdg=1 bus=25528-12345131.3.1 conn=wye Kv=13.8000 Kva=5.0 %R=0.500
~ wdg=2 bus=3099505-12345131v.1.4 conn=wye Kv=0.1270 Kva=5.0 %R=0.500
~ wdg=3 bus=3099505-12345131v.4.2 conn=wye Kv=0.1270 Kva=5.0 %R=0.500
New Transformer.3100257 phases=1 windings=3 Xhl=1.200 Xht=1.200 Xlt=0.600
~ wdg=1 bus=25529-12349331.2.3 conn=wye Kv=13.8000 Kva=5.0 %R=0.500
~ wdg=2 bus=3100257-12349331v.1.4 conn=wye Kv=0.1270 Kva=5.0 %R=0.500
~ wdg=3 bus=3100257-12349331v.4.2 conn=wye Kv=0.1270 Kva=5.0 %R=0.500
New Transformer.3099494 phases=1 windings=3 Xhl=1.200 Xht=1.200 Xlt=0.600
~ wdg=1 bus=25528-12345058.3.1 conn=wye Kv=13.8000 Kva=10.0 %R=0.500
~ wdg=2 bus=3099494-12345062.1.4 conn=wye Kv=0.1270 Kva=10.0 %R=0.500
~ wdg=3 bus=3099494-12345062.4.2 conn=wye Kv=0.1270 Kva=10.0 %R=0.500
New Transformer.2869876 phases=3 windings=2 Xhl=1.200
~ wdg=1 bus=25526-11335611.1.2.3 conn=delta Kv=13.8 Kva=75.0 %R=0.500
~ wdg=2 bus=2869876-9361829.1.2.3.4 conn=wye Kv=0.2200 Kva=75.0 %R=0.500
New Transformer.2889186 phases=3 windings=2 Xhl=1.200
~ wdg=1 bus=25526-11362661.1.2.3 conn=delta Kv=13.8 Kva=45.0 %R=0.500
~ wdg=2 bus=2889186-11362658.1.2.3.4 conn=wye Kv=0.2200 Kva=45.0 %R=0.500
New Transformer.2889228 phases=3 windings=2 Xhl=1.200
~ wdg=1 bus=25526-11362781.1.2.3 conn=delta Kv=13.8 Kva=45.0 %R=0.500
~ wdg=2 bus=2889228-11362760.1.2.3.4 conn=wye Kv=0.2200 Kva=45.0 %R=0.500
New Transformer.2889334 phases=3 windings=2 Xhl=1.200
~ wdg=1 bus=25526-11362876.1.2.3 conn=delta Kv=13.8 Kva=45.0 %R=0.500
~ wdg=2 bus=2889334-11636833.1.2.3.4 conn=wye Kv=0.2200 Kva=45.0 %R=0.500
New Transformer.2889277 phases=3 windings=2 Xhl=1.200
~ wdg=1 bus=25526-11362881.1.2.3 conn=delta Kv=13.8 Kva=45.0 %R=0.500
~ wdg=2 bus=2889277-11362858.1.2.3.4 conn=wye Kv=0.2200 Kva=45.0 %R=0.500
New Transformer.2889332 phases=3 windings=2 Xhl=1.200
~ wdg=1 bus=25526-11362925.1.2.3 conn=delta Kv=13.8 Kva=75.0 %R=0.500
~ wdg=2 bus=2889332-11362936.1.2.3.4 conn=wye Kv=0.2200 Kva=75.0 %R=0.500
New Transformer.2889333 phases=3 windings=2 Xhl=1.200
~ wdg=1 bus=25526-11362929.1.2.3 conn=delta Kv=13.8 Kva=75.0 %R=0.500
~ wdg=2 bus=2889333-11362933.1.2.3.4 conn=wye Kv=0.2200 Kva=75.0 %R=0.500
New Transformer.2889388 phases=3 windings=2 Xhl=1.200
~ wdg=1 bus=25526-11363035.1.2.3 conn=delta Kv=13.8 Kva=45.0 %R=0.500
~ wdg=2 bus=2889388-11363018.1.2.3.4 conn=wye Kv=0.2200 Kva=45.0 %R=0.500
New Transformer.2889401 phases=3 windings=2 Xhl=1.200
~ wdg=1 bus=25526-11363174.1.2.3 conn=delta Kv=13.8 Kva=45.0 %R=0.500
~ wdg=2 bus=2889401-11363188.1.2.3.4 conn=wye Kv=0.2200 Kva=45.0 %R=0.500
New Transformer.2889431 phases=3 windings=2 Xhl=1.200
~ wdg=1 bus=25526-11363179.1.2.3 conn=delta Kv=13.8 Kva=45.0 %R=0.500
~ wdg=2 bus=2889431-11363231.1.2.3.4 conn=wye Kv=0.2200 Kva=45.0 %R=0.500
New Transformer.2947790 phases=3 windings=2 Xhl=1.200
~ wdg=1 bus=25526-11484789.1.2.3 conn=delta Kv=13.8 Kva=45.0 %R=0.500
~ wdg=2 bus=2947790-11485064.1.2.3.4 conn=wye Kv=0.2200 Kva=45.0 %R=0.500
New Transformer.2947806 phases=3 windings=2 Xhl=1.200
~ wdg=1 bus=25526-11484804.1.2.3 conn=delta Kv=13.8 Kva=45.0 %R=0.500
~ wdg=2 bus=2947806-11484806.1.2.3.4 conn=wye Kv=0.2200 Kva=45.0 %R=0.500
New Transformer.2947803 phases=3 windings=2 Xhl=1.200
~ wdg=1 bus=25526-11484822.1.2.3 conn=delta Kv=13.8 Kva=45.0 %R=0.500
~ wdg=2 bus=2947803-11484823.1.2.3.4 conn=wye Kv=0.2200 Kva=45.0 %R=0.500
New Transformer.2947787 phases=3 windings=2 Xhl=1.200
~ wdg=1 bus=25526-11484838.1.2.3 conn=delta Kv=13.8 Kva=45.0 %R=0.500
~ wdg=2 bus=2947787-11484839.1.2.3.4 conn=wye Kv=0.2200 Kva=45.0 %R=0.500
New Transformer.2947778 phases=3 windings=2 Xhl=1.200
~ wdg=1 bus=25526-11484853.1.2.3 conn=delta Kv=13.8 Kva=45.0 %R=0.500
~ wdg=2 bus=2947778-11484870.1.2.3.4 conn=wye Kv=0.2200 Kva=45.0 %R=0.500
New Transformer.2947741 phases=3 windings=2 Xhl=1.200
~ wdg=1 bus=25526-11484861.1.2.3 conn=delta Kv=13.8 Kva=45.0 %R=0.500
~ wdg=2 bus=2947741-11484862.1.2.3.4 conn=wye Kv=0.2200 Kva=45.0 %R=0.500
New Transformer.2947740 phases=3 windings=2 Xhl=1.200
~ wdg=1 bus=25526-11484885.1.2.3 conn=delta Kv=13.8 Kva=45.0 %R=0.500
~ wdg=2 bus=2947740-11484888.1.2.3.4 conn=wye Kv=0.2200 Kva=45.0 %R=0.500
New Transformer.2947738 phases=3 windings=2 Xhl=1.200
~ wdg=1 bus=25526-11484903.1.2.3 conn=delta Kv=13.8 Kva=45.0 %R=0.500
~ wdg=2 bus=2947738-11484964.1.2.3.4 conn=wye Kv=0.2200 Kva=45.0 %R=0.500
New Transformer.2947739 phases=3 windings=2 Xhl=1.200
~ wdg=1 bus=25526-11484913.1.2.3 conn=delta Kv=13.8 Kva=45.0 %R=0.500
~ wdg=2 bus=2947739-11484898.1.2.3.4 conn=wye Kv=0.2200 Kva=45.0 %R=0.500
New Transformer.2889427 phases=3 windings=2 Xhl=1.200
~ wdg=1 bus=25526-11636677.1.2.3 conn=delta Kv=13.8 Kva=45.0 %R=0.500
~ wdg=2 bus=2889427-11363170.1.2.3.4 conn=wye Kv=0.2200 Kva=45.0 %R=0.500
New Transformer.2889230 phases=3 windings=2 Xhl=1.200
~ wdg=1 bus=25526-11636693.1.2.3 conn=delta Kv=13.8 Kva=45.0 %R=0.500
~ wdg=2 bus=2889230-11362800.1.2.3.4 conn=wye Kv=0.2200 Kva=45.0 %R=0.500
New Transformer.2889396 phases=3 windings=2 Xhl=1.200
~ wdg=1 bus=25526-11636856.1.2.3 conn=delta Kv=13.8 Kva=45.0 %R=0.500
~ wdg=2 bus=2889396-11363140.1.2.3.4 conn=wye Kv=0.2200 Kva=45.0 %R=0.500
New Transformer.2978335 phases=3 windings=2 Xhl=1.200
~ wdg=1 bus=25526-11636916.1.2.3 conn=delta Kv=13.8 Kva=45.0 %R=0.500
~ wdg=2 bus=2978335-11636908.1.2.3.4 conn=wye Kv=0.2200 Kva=45.0 %R=0.500
New Transformer.2980232 phases=3 windings=2 Xhl=1.200
~ wdg=1 bus=25526-11643383.1.2.3 conn=delta Kv=13.8 Kva=45.0 %R=0.500
~ wdg=2 bus=2980232-11362951.1.2.3.4 conn=wye Kv=0.2200 Kva=45.0 %R=0.500
New Transformer.3007336 phases=3 windings=2 Xhl=1.200
~ wdg=1 bus=25526-11763286.1.2.3 conn=delta Kv=13.8 Kva=75.0 %R=0.500
~ wdg=2 bus=3007336-11763286v.1.2.3.4 conn=wye Kv=0.2200 Kva=75.0 %R=0.500
New Transformer.3017482 phases=3 windings=2 Xhl=1.200
~ wdg=1 bus=25526-11820223.1.2.3 conn=delta Kv=13.8 Kva=150.0 %R=0.500
~ wdg=2 bus=3017482-11820223v.1.2.3.4 conn=wye Kv=0.2200 Kva=150.0 %R=0.500
New Transformer.3064806 phases=3 windings=2 Xhl=1.200
~ wdg=1 bus=25526-11850233.1.2.3 conn=delta Kv=13.8 Kva=112.5 %R=0.500
~ wdg=2 bus=3064806-12106201.1.2.3.4 conn=wye Kv=0.2200 Kva=112.5 %R=0.500
New Transformer.3022891 phases=3 windings=2 Xhl=1.200
~ wdg=1 bus=25526-11855840.1.2.3 conn=delta Kv=13.8 Kva=45.0 %R=0.500
~ wdg=2 bus=3022891-11855842.1.2.3.4 conn=wye Kv=0.2200 Kva=45.0 %R=0.500
New Transformer.3104790 phases=3 windings=2 Xhl=1.200
~ wdg=1 bus=25526-11901063.1.2.3 conn=delta Kv=13.8 Kva=45.0 %R=0.500
~ wdg=2 bus=3104790-12373056.1.2.3.4 conn=wye Kv=0.2200 Kva=45.0 %R=0.500
New Transformer.3018359 phases=3 windings=2 Xhl=1.200
~ wdg=1 bus=25526-11901395.1.2.3 conn=delta Kv=13.8 Kva=15.0 %R=0.500
~ wdg=2 bus=3018359-11901395v.1.2.3.4 conn=wye Kv=0.2200 Kva=15.0 %R=0.500
New Transformer.3012750 phases=3 windings=2 Xhl=1.200
~ wdg=1 bus=25526-11901537.1.2.3 conn=delta Kv=13.8 Kva=15.0 %R=0.500
~ wdg=2 bus=3012750-11901537v.1.2.3.4 conn=wye Kv=0.2200 Kva=15.0 %R=0.500
New Transformer.3108563 phases=3 windings=2 Xhl=1.200
~ wdg=1 bus=25526-12047212.1.2.3 conn=delta Kv=13.8 Kva=45.0 %R=0.500
~ wdg=2 bus=3108563-12047209.1.2.3.4 conn=wye Kv=0.2200 Kva=45.0 %R=0.500
New Transformer.2486618 phases=3 windings=2 Xhl=1.200
~ wdg=1 bus=25526-12123882.1.2.3 conn=delta Kv=13.8 Kva=112.5 %R=0.500
~ wdg=2 bus=2486618-12123882v.1.2.3.4 conn=wye Kv=0.2200 Kva=112.5 %R=0.500
New Transformer.3073328 phases=3 windings=2 Xhl=1.200
~ wdg=1 bus=25526-12172040.1.2.3 conn=delta Kv=13.8 Kva=112.5 %R=0.500
~ wdg=2 bus=3073328-12172040v.1.2.3.4 conn=wye Kv=0.2200 Kva=112.5 %R=0.500
New Transformer.3102428 phases=3 windings=2 Xhl=1.200
~ wdg=1 bus=25526-12358996.1.2.3 conn=delta Kv=13.8 Kva=45.0 %R=0.500
~ wdg=2 bus=3102428-12358997.1.2.3.4 conn=wye Kv=0.2200 Kva=45.0 %R=0.500
New Transformer.3102431 phases=3 windings=2 Xhl=1.200
~ wdg=1 bus=25526-12359001.1.2.3 conn=delta Kv=13.8 Kva=45.0 %R=0.500
~ wdg=2 bus=3102431-12359001v.1.2.3.4 conn=wye Kv=0.2200 Kva=45.0 %R=0.500
New Transformer.3102437 phases=3 windings=2 Xhl=1.200
~ wdg=1 bus=25526-12359040.1.2.3 conn=delta Kv=13.8 Kva=45.0 %R=0.500
~ wdg=2 bus=3102437-12359042.1.2.3.4 conn=wye Kv=0.2200 Kva=45.0 %R=0.500
New Transformer.3102445 phases=3 windings=2 Xhl=1.200
~ wdg=1 bus=25526-12359100.1.2.3 conn=delta Kv=13.8 Kva=45.0 %R=0.500
~ wdg=2 bus=3102445-12359104.1.2.3.4 conn=wye Kv=0.2200 Kva=45.0 %R=0.500
New Transformer.3102452 phases=3 windings=2 Xhl=1.200
~ wdg=1 bus=25526-12359307.1.2.3 conn=delta Kv=13.8 Kva=45.0 %R=0.500
~ wdg=2 bus=3102452-12359313.1.2.3.4 conn=wye Kv=0.2200 Kva=45.0 %R=0.500
New Transformer.3123941 phases=3 windings=2 Xhl=1.200
~ wdg=1 bus=25526-12501239.1.2.3 conn=delta Kv=13.8 Kva=75.0 %R=0.500
~ wdg=2 bus=3123941-12501241.1.2.3.4 conn=wye Kv=0.2200 Kva=75.0 %R=0.500
New Transformer.3124784 phases=3 windings=2 Xhl=1.200
~ wdg=1 bus=25526-12506686.1.2.3 conn=delta Kv=13.8 Kva=45.0 %R=0.500
~ wdg=2 bus=3124784-12506686v.1.2.3.4 conn=wye Kv=0.2200 Kva=45.0 %R=0.500
New Transformer.3128079 phases=3 windings=2 Xhl=1.200
~ wdg=1 bus=25526-12523907.1.2.3 conn=delta Kv=13.8 Kva=45.0 %R=0.500
~ wdg=2 bus=3128079-12523908.1.2.3.4 conn=wye Kv=0.2200 Kva=45.0 %R=0.500
New Transformer.3007703 phases=3 windings=2 Xhl=1.200
~ wdg=1 bus=25526-12560942.1.2.3 conn=delta Kv=13.8 Kva=45.0 %R=0.500
~ wdg=2 bus=3007703-9362325.1.2.3.4 conn=wye Kv=0.2200 Kva=45.0 %R=0.500
New Transformer.3138236 phases=3 windings=2 Xhl=1.200
~ wdg=1 bus=25526-12584125.1.2.3 conn=delta Kv=13.8 Kva=75.0 %R=0.500
~ wdg=2 bus=3138236-12584125v.1.2.3.4 conn=wye Kv=0.2200 Kva=75.0 %R=0.500
New Transformer.3148817 phases=3 windings=2 Xhl=1.200
~ wdg=1 bus=25526-12646540.1.2.3 conn=delta Kv=13.8 Kva=75.0 %R=0.500
~ wdg=2 bus=3148817-12646539.1.2.3.4 conn=wye Kv=0.2200 Kva=75.0 %R=0.500
New Transformer.3158775 phases=3 windings=2 Xhl=1.200
~ wdg=1 bus=25526-12707732.1.2.3 conn=delta Kv=13.8 Kva=75.0 %R=0.500
~ wdg=2 bus=3158775-12707732v.1.2.3.4 conn=wye Kv=0.2200 Kva=75.0 %R=0.500
New Transformer.3163424 phases=3 windings=2 Xhl=1.200
~ wdg=1 bus=25526-12760702.1.2.3 conn=delta Kv=13.8 Kva=75.0 %R=0.500
~ wdg=2 bus=3163424-12760703.1.2.3.4 conn=wye Kv=0.2200 Kva=75.0 %R=0.500
New Transformer.3171357 phases=3 windings=2 Xhl=1.200
~ wdg=1 bus=25526-12815633.1.2.3 conn=delta Kv=13.8 Kva=75.0 %R=0.500
~ wdg=2 bus=3171357-12815633v.1.2.3.4 conn=wye Kv=0.2200 Kva=75.0 %R=0.500
New Transformer.2486576 phases=3 windings=2 Xhl=1.200
~ wdg=1 bus=25526-12815669.1.2.3 conn=delta Kv=13.8 Kva=30.0 %R=0.500
~ wdg=2 bus=2486576-12815669v.1.2.3.4 conn=wye Kv=0.2200 Kva=30.0 %R=0.500
New Transformer.3174000 phases=3 windings=2 Xhl=1.200
~ wdg=1 bus=25526-12852069.1.2.3 conn=delta Kv=13.8 Kva=75.0 %R=0.500
~ wdg=2 bus=3174000-12852069v.1.2.3.4 conn=wye Kv=0.2200 Kva=75.0 %R=0.500
New Transformer.3191532 phases=3 windings=2 Xhl=1.200
~ wdg=1 bus=25526-13007428.1.2.3 conn=delta Kv=13.8 Kva=75.0 %R=0.500
~ wdg=2 bus=3191532-13007428v.1.2.3.4 conn=wye Kv=0.2200 Kva=75.0 %R=0.500
New Transformer.2980231 phases=3 windings=2 Xhl=1.200
~ wdg=1 bus=25526-13057903.1.2.3 conn=delta Kv=13.8 Kva=45.0 %R=0.500
~ wdg=2 bus=2980231-11643344.1.2.3.4 conn=wye Kv=0.2200 Kva=45.0 %R=0.500
New Transformer.3208169 phases=3 windings=2 Xhl=1.200
~ wdg=1 bus=25526-13084364.1.2.3 conn=delta Kv=13.8 Kva=150.0 %R=0.500
~ wdg=2 bus=3208169-13084364v.1.2.3.4 conn=wye Kv=0.2200 Kva=150.0 %R=0.500
New Transformer.3203833 phases=3 windings=2 Xhl=1.200
~ wdg=1 bus=25526-13116856.1.2.3 conn=delta Kv=13.8 Kva=45.0 %R=0.500
~ wdg=2 bus=3203833-13116857.1.2.3.4 conn=wye Kv=0.2200 Kva=45.0 %R=0.500
New Transformer.2486600 phases=3 windings=2 Xhl=1.200
~ wdg=1 bus=25526-9361091.1.2.3 conn=delta Kv=13.8 Kva=150.0 %R=0.500
~ wdg=2 bus=2486600-9361092.1.2.3.4 conn=wye Kv=0.2200 Kva=150.0 %R=0.500
New Transformer.3124249 phases=3 windings=2 Xhl=1.200
~ wdg=1 bus=25526-9361115.1.2.3 conn=delta Kv=13.8 Kva=75.0 %R=0.500
~ wdg=2 bus=3124249-9361116.1.2.3.4 conn=wye Kv=0.2200 Kva=75.0 %R=0.500
New Transformer.2486653 phases=3 windings=2 Xhl=1.200
~ wdg=1 bus=25526-9361144.1.2.3 conn=delta Kv=13.8 Kva=45.0 %R=0.500
~ wdg=2 bus=2486653-9361145.1.2.3.4 conn=wye Kv=0.2200 Kva=45.0 %R=0.500
New Transformer.2486599 phases=3 windings=2 Xhl=1.200
~ wdg=1 bus=25526-9361170.1.2.3 conn=delta Kv=13.8 Kva=45.0 %R=0.500
~ wdg=2 bus=2486599-9361171.1.2.3.4 conn=wye Kv=0.2200 Kva=45.0 %R=0.500
New Transformer.2486695 phases=3 windings=2 Xhl=1.200
~ wdg=1 bus=25526-9361172.1.2.3 conn=delta Kv=13.8 Kva=45.0 %R=0.500
~ wdg=2 bus=2486695-9361173.1.2.3.4 conn=wye Kv=0.2200 Kva=45.0 %R=0.500
New Transformer.2486612 phases=3 windings=2 Xhl=1.200
~ wdg=1 bus=25526-9361174.1.2.3 conn=delta Kv=13.8 Kva=45.0 %R=0.500
~ wdg=2 bus=2486612-9361175.1.2.3.4 conn=wye Kv=0.2200 Kva=45.0 %R=0.500
New Transformer.2486610 phases=3 windings=2 Xhl=1.200
~ wdg=1 bus=25526-9361321.1.2.3 conn=delta Kv=13.8 Kva=45.0 %R=0.500
~ wdg=2 bus=2486610-9361322.1.2.3.4 conn=wye Kv=0.2200 Kva=45.0 %R=0.500
New Transformer.2486631 phases=3 windings=2 Xhl=1.200
~ wdg=1 bus=25526-9361401.1.2.3 conn=delta Kv=13.8 Kva=75.0 %R=0.500
~ wdg=2 bus=2486631-9361402.1.2.3.4 conn=wye Kv=0.2200 Kva=75.0 %R=0.500
New Transformer.2486657 phases=3 windings=2 Xhl=1.200
~ wdg=1 bus=25526-9361403.1.2.3 conn=delta Kv=13.8 Kva=45.0 %R=0.500
~ wdg=2 bus=2486657-9361404.1.2.3.4 conn=wye Kv=0.2200 Kva=45.0 %R=0.500
New Transformer.2486584 phases=3 windings=2 Xhl=1.200
~ wdg=1 bus=25526-9361523.1.2.3 conn=delta Kv=13.8 Kva=45.0 %R=0.500
~ wdg=2 bus=2486584-9361524.1.2.3.4 conn=wye Kv=0.2200 Kva=45.0 %R=0.500
New Transformer.2486738 phases=3 windings=2 Xhl=1.200
~ wdg=1 bus=25526-9361525.1.2.3 conn=delta Kv=13.8 Kva=75.0 %R=0.500
~ wdg=2 bus=2486738-9361526.1.2.3.4 conn=wye Kv=0.2200 Kva=75.0 %R=0.500
New Transformer.2486733 phases=3 windings=2 Xhl=1.200
~ wdg=1 bus=25526-9361534.1.2.3 conn=delta Kv=13.8 Kva=45.0 %R=0.500
~ wdg=2 bus=2486733-9361535.1.2.3.4 conn=wye Kv=0.2200 Kva=45.0 %R=0.500
New Transformer.2486726 phases=3 windings=2 Xhl=1.200
~ wdg=1 bus=25526-9361647.1.2.3 conn=delta Kv=13.8 Kva=75.0 %R=0.500
~ wdg=2 bus=2486726-9361648.1.2.3.4 conn=wye Kv=0.2200 Kva=75.0 %R=0.500
New Transformer.2486640 phases=3 windings=2 Xhl=1.200
~ wdg=1 bus=25526-9361655.1.2.3 conn=delta Kv=13.8 Kva=45.0 %R=0.500
~ wdg=2 bus=2486640-9361656.1.2.3.4 conn=wye Kv=0.2200 Kva=45.0 %R=0.500
New Transformer.2486575 phases=3 windings=2 Xhl=1.200
~ wdg=1 bus=25526-9361657.1.2.3 conn=delta Kv=13.8 Kva=75.0 %R=0.500
~ wdg=2 bus=2486575-9361658.1.2.3.4 conn=wye Kv=0.2200 Kva=75.0 %R=0.500
New Transformer.2486636 phases=3 windings=2 Xhl=1.200
~ wdg=1 bus=25526-9361780.1.2.3 conn=delta Kv=13.8 Kva=45.0 %R=0.500
~ wdg=2 bus=2486636-9361781.1.2.3.4 conn=wye Kv=0.2200 Kva=45.0 %R=0.500
New Transformer.2486693 phases=3 windings=2 Xhl=1.200
~ wdg=1 bus=25526-9361811.1.2.3 conn=delta Kv=13.8 Kva=45.0 %R=0.500
~ wdg=2 bus=2486693-9361812.1.2.3.4 conn=wye Kv=0.2200 Kva=45.0 %R=0.500
New Transformer.2486583 phases=3 windings=2 Xhl=1.200
~ wdg=1 bus=25526-9361916.1.2.3 conn=delta Kv=13.8 Kva=112.5 %R=0.500
~ wdg=2 bus=2486583-9361917.1.2.3.4 conn=wye Kv=0.2200 Kva=112.5 %R=0.500
New Transformer.2486625 phases=3 windings=2 Xhl=1.200
~ wdg=1 bus=25526-9361987.1.2.3 conn=delta Kv=13.8 Kva=112.5 %R=0.500
~ wdg=2 bus=2486625-9361987v.1.2.3.4 conn=wye Kv=0.2200 Kva=112.5 %R=0.500
New Transformer.2486697 phases=3 windings=2 Xhl=1.200
~ wdg=1 bus=25526-9361988.1.2.3 conn=delta Kv=13.8 Kva=45.0 %R=0.500
~ wdg=2 bus=2486697-9361988v.1.2.3.4 conn=wye Kv=0.2200 Kva=45.0 %R=0.500
New Transformer.3166224 phases=3 windings=2 Xhl=1.200
~ wdg=1 bus=25526-9362001.1.2.3 conn=delta Kv=13.8 Kva=75.0 %R=0.500
~ wdg=2 bus=3166224-9362001v.1.2.3.4 conn=wye Kv=0.2200 Kva=75.0 %R=0.500
New Transformer.2486689 phases=3 windings=2 Xhl=1.200
~ wdg=1 bus=25526-9362119.1.2.3 conn=delta Kv=13.8 Kva=75.0 %R=0.500
~ wdg=2 bus=2486689-9362120.1.2.3.4 conn=wye Kv=0.2200 Kva=75.0 %R=0.500
New Transformer.2486737 phases=3 windings=2 Xhl=1.200
~ wdg=1 bus=25526-9362151.1.2.3 conn=delta Kv=13.8 Kva=45.0 %R=0.500
~ wdg=2 bus=2486737-9362152.1.2.3.4 conn=wye Kv=0.2200 Kva=45.0 %R=0.500
New Transformer.2486585 phases=3 windings=2 Xhl=1.200
~ wdg=1 bus=25526-9362155.1.2.3 conn=delta Kv=13.8 Kva=30.0 %R=0.500
~ wdg=2 bus=2486585-9362156.1.2.3.4 conn=wye Kv=0.2200 Kva=30.0 %R=0.500
New Transformer.2486571 phases=3 windings=2 Xhl=1.200
~ wdg=1 bus=25526-9362168.1.2.3 conn=delta Kv=13.8 Kva=112.5 %R=0.500
~ wdg=2 bus=2486571-9362169.1.2.3.4 conn=wye Kv=0.2200 Kva=112.5 %R=0.500
New Transformer.2486718 phases=3 windings=2 Xhl=1.200
~ wdg=1 bus=25526-9362170.1.2.3 conn=delta Kv=13.8 Kva=45.0 %R=0.500
~ wdg=2 bus=2486718-9362171.1.2.3.4 conn=wye Kv=0.2200 Kva=45.0 %R=0.500
New Transformer.2486557 phases=3 windings=2 Xhl=1.200
~ wdg=1 bus=25526-9362174.1.2.3 conn=delta Kv=13.8 Kva=45.0 %R=0.500
~ wdg=2 bus=2486557-9362175.1.2.3.4 conn=wye Kv=0.2200 Kva=45.0 %R=0.500
New Transformer.2486566 phases=3 windings=2 Xhl=1.200
~ wdg=1 bus=25526-9362188.1.2.3 conn=delta Kv=13.8 Kva=45.0 %R=0.500
~ wdg=2 bus=2486566-9362189.1.2.3.4 conn=wye Kv=0.2200 Kva=45.0 %R=0.500
New Transformer.2486680 phases=3 windings=2 Xhl=1.200
~ wdg=1 bus=25526-9362330.1.2.3 conn=delta Kv=13.8 Kva=45.0 %R=0.500
~ wdg=2 bus=2486680-9362330v.1.2.3.4 conn=wye Kv=0.2200 Kva=45.0 %R=0.500
New Transformer.2486645 phases=3 windings=2 Xhl=1.200
~ wdg=1 bus=25526-9362332.1.2.3 conn=delta Kv=13.8 Kva=45.0 %R=0.500
~ wdg=2 bus=2486645-9362333.1.2.3.4 conn=wye Kv=0.2200 Kva=45.0 %R=0.500
New Transformer.2486717 phases=3 windings=2 Xhl=1.200
~ wdg=1 bus=25526-9362334.1.2.3 conn=delta Kv=13.8 Kva=45.0 %R=0.500
~ wdg=2 bus=2486717-9362335.1.2.3.4 conn=wye Kv=0.2200 Kva=45.0 %R=0.500
New Transformer.2486559 phases=3 windings=2 Xhl=1.200
~ wdg=1 bus=25526-9362338.1.2.3 conn=delta Kv=13.8 Kva=45.0 %R=0.500
~ wdg=2 bus=2486559-9362339.1.2.3.4 conn=wye Kv=0.2200 Kva=45.0 %R=0.500
New Transformer.2486634 phases=3 windings=2 Xhl=1.200
~ wdg=1 bus=25526-9362406.1.2.3 conn=delta Kv=13.8 Kva=45.0 %R=0.500
~ wdg=2 bus=2486634-9362407.1.2.3.4 conn=wye Kv=0.2200 Kva=45.0 %R=0.500
New Transformer.2486586 phases=3 windings=2 Xhl=1.200
~ wdg=1 bus=25526-9362410.1.2.3 conn=delta Kv=13.8 Kva=45.0 %R=0.500
~ wdg=2 bus=2486586-9362411.1.2.3.4 conn=wye Kv=0.2200 Kva=45.0 %R=0.500
New Transformer.2486556 phases=3 windings=2 Xhl=1.200
~ wdg=1 bus=25526-9362414.1.2.3 conn=delta Kv=13.8 Kva=75.0 %R=0.500
~ wdg=2 bus=2486556-9362415.1.2.3.4 conn=wye Kv=0.2200 Kva=75.0 %R=0.500
New Transformer.2486611 phases=3 windings=2 Xhl=1.200
~ wdg=1 bus=25526-9362615.1.2.3 conn=delta Kv=13.8 Kva=45.0 %R=0.500
~ wdg=2 bus=2486611-9362616.1.2.3.4 conn=wye Kv=0.2200 Kva=45.0 %R=0.500
New Transformer.2486554 phases=3 windings=2 Xhl=1.200
~ wdg=1 bus=25526-9362661.1.2.3 conn=delta Kv=13.8 Kva=112.5 %R=0.500
~ wdg=2 bus=2486554-9362662.1.2.3.4 conn=wye Kv=0.2200 Kva=112.5 %R=0.500
New Transformer.2486736 phases=3 windings=2 Xhl=1.200
~ wdg=1 bus=25526-9362663.1.2.3 conn=delta Kv=13.8 Kva=75.0 %R=0.500
~ wdg=2 bus=2486736-9362664.1.2.3.4 conn=wye Kv=0.2200 Kva=75.0 %R=0.500
New Transformer.2486568 phases=3 windings=2 Xhl=1.200
~ wdg=1 bus=25526-9362665.1.2.3 conn=delta Kv=13.8 Kva=75.0 %R=0.500
~ wdg=2 bus=2486568-9362666.1.2.3.4 conn=wye Kv=0.2200 Kva=75.0 %R=0.500
New Transformer.2486692 phases=3 windings=2 Xhl=1.200
~ wdg=1 bus=25526-9362667.1.2.3 conn=delta Kv=13.8 Kva=150.0 %R=0.500
~ wdg=2 bus=2486692-9362667v.1.2.3.4 conn=wye Kv=0.2200 Kva=150.0 %R=0.500
New Transformer.2486671 phases=3 windings=2 Xhl=1.200
~ wdg=1 bus=25526-9362677.1.2.3 conn=delta Kv=13.8 Kva=45.0 %R=0.500
~ wdg=2 bus=2486671-9362678.1.2.3.4 conn=wye Kv=0.2200 Kva=45.0 %R=0.500
New Transformer.2486565 phases=3 windings=2 Xhl=1.200
~ wdg=1 bus=25526-9362801.1.2.3 conn=delta Kv=13.8 Kva=112.5 %R=0.500
~ wdg=2 bus=2486565-9362802.1.2.3.4 conn=wye Kv=0.2200 Kva=112.5 %R=0.500
New Transformer.2486720 phases=3 windings=2 Xhl=1.200
~ wdg=1 bus=25526-9362804.1.2.3 conn=delta Kv=13.8 Kva=30.0 %R=0.500
~ wdg=2 bus=2486720-9362805.1.2.3.4 conn=wye Kv=0.2200 Kva=30.0 %R=0.500
New Transformer.3039530 phases=3 windings=2 Xhl=1.200
~ wdg=1 bus=25526-9363059.1.2.3 conn=delta Kv=13.8 Kva=75.0 %R=0.500
~ wdg=2 bus=3039530-9363059v.1.2.3.4 conn=wye Kv=0.2200 Kva=75.0 %R=0.500
New Transformer.2486708 phases=3 windings=2 Xhl=1.200
~ wdg=1 bus=25526-9363099.1.2.3 conn=delta Kv=13.8 Kva=30.0 %R=0.500
~ wdg=2 bus=2486708-9363100.1.2.3.4 conn=wye Kv=0.2200 Kva=30.0 %R=0.500
New Transformer.2486727 phases=3 windings=2 Xhl=1.200
~ wdg=1 bus=25526-9363104.1.2.3 conn=delta Kv=13.8 Kva=112.5 %R=0.500
~ wdg=2 bus=2486727-9363104v.1.2.3.4 conn=wye Kv=0.2200 Kva=112.5 %R=0.500
New Transformer.2486609 phases=3 windings=2 Xhl=1.200
~ wdg=1 bus=25526-9363105.1.2.3 conn=delta Kv=13.8 Kva=112.5 %R=0.500
~ wdg=2 bus=2486609-9363105v.1.2.3.4 conn=wye Kv=0.2200 Kva=112.5 %R=0.500
New Transformer.2486564 phases=3 windings=2 Xhl=1.200
~ wdg=1 bus=25526-9363216.1.2.3 conn=delta Kv=13.8 Kva=75.0 %R=0.500
~ wdg=2 bus=2486564-9363217.1.2.3.4 conn=wye Kv=0.2200 Kva=75.0 %R=0.500
New Transformer.2486589 phases=3 windings=2 Xhl=1.200
~ wdg=1 bus=25526-9363218.1.2.3 conn=delta Kv=13.8 Kva=45.0 %R=0.500
~ wdg=2 bus=2486589-9363219.1.2.3.4 conn=wye Kv=0.2200 Kva=45.0 %R=0.500
New Transformer.2486675 phases=3 windings=2 Xhl=1.200
~ wdg=1 bus=25526-9363319.1.2.3 conn=delta Kv=13.8 Kva=112.5 %R=0.500
~ wdg=2 bus=2486675-9363320.1.2.3.4 conn=wye Kv=0.2200 Kva=112.5 %R=0.500
New Transformer.2486567 phases=3 windings=2 Xhl=1.200
~ wdg=1 bus=25526-9363323.1.2.3 conn=delta Kv=13.8 Kva=30.0 %R=0.500
~ wdg=2 bus=2486567-9363324.1.2.3.4 conn=wye Kv=0.2200 Kva=30.0 %R=0.500
New Transformer.2486745 phases=3 windings=2 Xhl=1.200
~ wdg=1 bus=25526-9363325.1.2.3 conn=delta Kv=13.8 Kva=150.0 %R=0.500
~ wdg=2 bus=2486745-9363326.1.2.3.4 conn=wye Kv=0.2200 Kva=150.0 %R=0.500
New Transformer.3166220 phases=3 windings=2 Xhl=1.200
~ wdg=1 bus=25526-9363407.1.2.3 conn=delta Kv=13.8 Kva=150.0 %R=0.500
~ wdg=2 bus=3166220-9363407v.1.2.3.4 conn=wye Kv=0.2200 Kva=150.0 %R=0.500
New Transformer.2486719 phases=3 windings=2 Xhl=1.200
~ wdg=1 bus=25526-9363422.1.2.3 conn=delta Kv=13.8 Kva=45.0 %R=0.500
~ wdg=2 bus=2486719-9363423.1.2.3.4 conn=wye Kv=0.2200 Kva=45.0 %R=0.500
New Transformer.2486555 phases=3 windings=2 Xhl=1.200
~ wdg=1 bus=25526-9363442.1.2.3 conn=delta Kv=13.8 Kva=45.0 %R=0.500
~ wdg=2 bus=2486555-9363443.1.2.3.4 conn=wye Kv=0.2200 Kva=45.0 %R=0.500
New Transformer.2486687 phases=3 windings=2 Xhl=1.200
~ wdg=1 bus=25526-9363452.1.2.3 conn=delta Kv=13.8 Kva=45.0 %R=0.500
~ wdg=2 bus=2486687-9363453.1.2.3.4 conn=wye Kv=0.2200 Kva=45.0 %R=0.500
New Transformer.2889231 phases=3 windings=2 Xhl=1.200
~ wdg=1 bus=25527-11362807.1.2.3 conn=delta Kv=13.8 Kva=45.0 %R=0.500
~ wdg=2 bus=2889231-9365135.1.2.3.4 conn=wye Kv=0.2200 Kva=45.0 %R=0.500
New Transformer.2889330 phases=3 windings=2 Xhl=1.200
~ wdg=1 bus=25527-11362953.1.2.3 conn=delta Kv=13.8 Kva=45.0 %R=0.500
~ wdg=2 bus=2889330-11362959.1.2.3.4 conn=wye Kv=0.2200 Kva=45.0 %R=0.500
New Transformer.2937279 phases=3 windings=2 Xhl=1.200
~ wdg=1 bus=25527-11443193.1.2.3 conn=delta Kv=13.8 Kva=600.0 %R=0.500
~ wdg=2 bus=2937279-11443193v.1.2.3.4 conn=wye Kv=0.2200 Kva=600.0 %R=0.500
New Transformer.2989867 phases=3 windings=2 Xhl=1.200
~ wdg=1 bus=25527-11674383.1.2.3 conn=delta Kv=13.8 Kva=45.0 %R=0.500
~ wdg=2 bus=2989867-9364663.1.2.3.4 conn=wye Kv=0.2200 Kva=45.0 %R=0.500
New Transformer.3007625 phases=3 windings=2 Xhl=1.200
~ wdg=1 bus=25527-11764878.1.2.3 conn=delta Kv=13.8 Kva=45.0 %R=0.500
~ wdg=2 bus=3007625-11764881.1.2.3.4 conn=wye Kv=0.2200 Kva=45.0 %R=0.500
New Transformer.3012752 phases=3 windings=2 Xhl=1.200
~ wdg=1 bus=25527-11792527.1.2.3 conn=delta Kv=13.8 Kva=75.0 %R=0.500
~ wdg=2 bus=3012752-11792541.1.2.3.4 conn=wye Kv=0.2200 Kva=75.0 %R=0.500
New Transformer.2889379 phases=3 windings=2 Xhl=1.200
~ wdg=1 bus=25527-11800888.1.2.3 conn=delta Kv=13.8 Kva=75.0 %R=0.500
~ wdg=2 bus=2889379-9363755.1.2.3.4 conn=wye Kv=0.2200 Kva=75.0 %R=0.500
New Transformer.2487002 phases=3 windings=2 Xhl=1.200
~ wdg=1 bus=25527-11862936.1.2.3 conn=delta Kv=13.8 Kva=112.5 %R=0.500
~ wdg=2 bus=2487002-11862936v.1.2.3.4 conn=wye Kv=0.2200 Kva=112.5 %R=0.500
New Transformer.2486938 phases=3 windings=2 Xhl=1.200
~ wdg=1 bus=25527-11901075.1.2.3 conn=delta Kv=13.8 Kva=75.0 %R=0.500
~ wdg=2 bus=2486938-12047208.1.2.3.4 conn=wye Kv=0.2200 Kva=75.0 %R=0.500
New Transformer.3047937 phases=3 windings=2 Xhl=1.200
~ wdg=1 bus=25527-12033255.1.2.3 conn=delta Kv=13.8 Kva=112.5 %R=0.500
~ wdg=2 bus=3047937-12010601.1.2.3.4 conn=wye Kv=0.2200 Kva=112.5 %R=0.500
New Transformer.3020640 phases=1 windings=3 Xhl=1.200 Xht=1.200 Xlt=0.600
~ wdg=1 bus=25527-12067617.3 conn=wye Kv=7.9674 Kva=10.0 %R=0.500
~ wdg=2 bus=3020640-12067621.1.4 conn=wye Kv=0.1100 Kva=10.0 %R=0.500
~ wdg=3 bus=3020640-12067621.4.2 conn=wye Kv=0.1100 Kva=10.0 %R=0.500
New Transformer.3090046 phases=3 windings=2 Xhl=1.200
~ wdg=1 bus=25527-12288388.1.2.3 conn=delta Kv=13.8 Kva=75.0 %R=0.500
~ wdg=2 bus=3090046-9364440.1.2.3.4 conn=wye Kv=0.2200 Kva=75.0 %R=0.500
New Transformer.3097098 phases=1 windings=3 Xhl=1.200 Xht=1.200 Xlt=0.600
~ wdg=1 bus=25527-12333232.2 conn=wye Kv=7.9674 Kva=5.0 %R=0.500
~ wdg=2 bus=3097098-12333494.1.4 conn=wye Kv=0.1100 Kva=5.0 %R=0.500
~ wdg=3 bus=3097098-12333494.4.2 conn=wye Kv=0.1100 Kva=5.0 %R=0.500
New Transformer.3097097 phases=1 windings=3 Xhl=1.200 Xht=1.200 Xlt=0.600
~ wdg=1 bus=25527-12333238.2 conn=wye Kv=7.9674 Kva=5.0 %R=0.500
~ wdg=2 bus=3097097-12333238v.1.4 conn=wye Kv=0.1100 Kva=5.0 %R=0.500
~ wdg=3 bus=3097097-12333238v.4.2 conn=wye Kv=0.1100 Kva=5.0 %R=0.500
New Transformer.3097096 phases=1 windings=3 Xhl=1.200 Xht=1.200 Xlt=0.600
~ wdg=1 bus=25527-12333242.2 conn=wye Kv=7.9674 Kva=5.0 %R=0.500
~ wdg=2 bus=3097096-12333242v.1.4 conn=wye Kv=0.1100 Kva=5.0 %R=0.500
~ wdg=3 bus=3097096-12333242v.4.2 conn=wye Kv=0.1100 Kva=5.0 %R=0.500
New Transformer.3097091 phases=1 windings=3 Xhl=1.200 Xht=1.200 Xlt=0.600
~ wdg=1 bus=25527-12333251.2 conn=wye Kv=7.9674 Kva=5.0 %R=0.500
~ wdg=2 bus=3097091-12333498.1.4 conn=wye Kv=0.1100 Kva=5.0 %R=0.500
~ wdg=3 bus=3097091-12333498.4.2 conn=wye Kv=0.1100 Kva=5.0 %R=0.500
New Transformer.3097088 phases=1 windings=3 Xhl=1.200 Xht=1.200 Xlt=0.600
~ wdg=1 bus=25527-12333254.2 conn=wye Kv=7.9674 Kva=10.0 %R=0.500
~ wdg=2 bus=3097088-12333173.1.4 conn=wye Kv=0.1100 Kva=10.0 %R=0.500
~ wdg=3 bus=3097088-12333173.4.2 conn=wye Kv=0.1100 Kva=10.0 %R=0.500
New Transformer.3097086 phases=1 windings=3 Xhl=1.200 Xht=1.200 Xlt=0.600
~ wdg=1 bus=25527-12333256.2 conn=wye Kv=7.9674 Kva=5.0 %R=0.500
~ wdg=2 bus=3097086-12333256v.1.4 conn=wye Kv=0.1100 Kva=5.0 %R=0.500
~ wdg=3 bus=3097086-12333256v.4.2 conn=wye Kv=0.1100 Kva=5.0 %R=0.500
New Transformer.3097084 phases=1 windings=3 Xhl=1.200 Xht=1.200 Xlt=0.600
~ wdg=1 bus=25527-12333257.2 conn=wye Kv=7.9674 Kva=5.0 %R=0.500
~ wdg=2 bus=3097084-12333257v.1.4 conn=wye Kv=0.1100 Kva=5.0 %R=0.500
~ wdg=3 bus=3097084-12333257v.4.2 conn=wye Kv=0.1100 Kva=5.0 %R=0.500
New Transformer.3097083 phases=1 windings=3 Xhl=1.200 Xht=1.200 Xlt=0.600
~ wdg=1 bus=25527-12333259.2 conn=wye Kv=7.9674 Kva=5.0 %R=0.500
~ wdg=2 bus=3097083-12333259v.1.4 conn=wye Kv=0.1100 Kva=5.0 %R=0.500
~ wdg=3 bus=3097083-12333259v.4.2 conn=wye Kv=0.1100 Kva=5.0 %R=0.500
New Transformer.3167838 phases=1 windings=3 Xhl=1.200 Xht=1.200 Xlt=0.600
~ wdg=1 bus=25527-12405768.1 conn=wye Kv=7.9674 Kva=25.0 %R=0.500
~ wdg=2 bus=3167838-12795490.1.4 conn=wye Kv=0.1100 Kva=25.0 %R=0.500
~ wdg=3 bus=3167838-12795490.4.2 conn=wye Kv=0.1100 Kva=25.0 %R=0.500
New Transformer.3110179 phases=1 windings=3 Xhl=1.200 Xht=1.200 Xlt=0.600
~ wdg=1 bus=25527-12405770.1 conn=wye Kv=7.9674 Kva=10.0 %R=0.500
~ wdg=2 bus=3110179-12405770v.1.4 conn=wye Kv=0.1100 Kva=10.0 %R=0.500
~ wdg=3 bus=3110179-12405770v.4.2 conn=wye Kv=0.1100 Kva=10.0 %R=0.500
New Transformer.3121010 phases=3 windings=2 Xhl=1.200
~ wdg=1 bus=25527-12485095.1.2.3 conn=delta Kv=13.8 Kva=45.0 %R=0.500
~ wdg=2 bus=3121010-12485098.1.2.3.4 conn=wye Kv=0.2200 Kva=45.0 %R=0.500
New Transformer.3133007 phases=3 windings=2 Xhl=1.200
~ wdg=1 bus=25527-12554025.1.2.3 conn=delta Kv=13.8 Kva=75.0 %R=0.500
~ wdg=2 bus=3133007-12554025v.1.2.3.4 conn=wye Kv=0.2200 Kva=75.0 %R=0.500
New Transformer.3135350 phases=1 windings=3 Xhl=1.200 Xht=1.200 Xlt=0.600
~ wdg=1 bus=25527-12569176.1 conn=wye Kv=7.9674 Kva=10.0 %R=0.500
~ wdg=2 bus=3135350-12569176v.1.4 conn=wye Kv=0.1100 Kva=10.0 %R=0.500
~ wdg=3 bus=3135350-12569176v.4.2 conn=wye Kv=0.1100 Kva=10.0 %R=0.500
New Transformer.3138297 phases=3 windings=2 Xhl=1.200
~ wdg=1 bus=25527-12584212.1.2.3 conn=delta Kv=13.8 Kva=75.0 %R=0.500
~ wdg=2 bus=3138297-12584213.1.2.3.4 conn=wye Kv=0.2200 Kva=75.0 %R=0.500
New Transformer.3188661 phases=3 windings=2 Xhl=1.200
~ wdg=1 bus=25527-12971018.1.2.3 conn=delta Kv=13.8 Kva=75.0 %R=0.500
~ wdg=2 bus=3188661-9364223.1.2.3.4 conn=wye Kv=0.2200 Kva=75.0 %R=0.500
New Transformer.3202986 phases=3 windings=2 Xhl=1.200
~ wdg=1 bus=25527-13101646.1.2.3 conn=delta Kv=13.8 Kva=75.0 %R=0.500
~ wdg=2 bus=3202986-13101646v.1.2.3.4 conn=wye Kv=0.2200 Kva=75.0 %R=0.500
New Transformer.2486658 phases=3 windings=2 Xhl=1.200
~ wdg=1 bus=25527-9361281.1.2.3 conn=delta Kv=13.8 Kva=15.0 %R=0.500
~ wdg=2 bus=2486658-9361281v.1.2.3.4 conn=wye Kv=0.2200 Kva=15.0 %R=0.500
New Transformer.2486659 phases=1 windings=3 Xhl=1.200 Xht=1.200 Xlt=0.600
~ wdg=1 bus=25527-9361690.1 conn=wye Kv=7.9674 Kva=5.0 %R=0.500
~ wdg=2 bus=2486659-9361690v.1.4 conn=wye Kv=0.1100 Kva=5.0 %R=0.500
~ wdg=3 bus=2486659-9361690v.4.2 conn=wye Kv=0.1100 Kva=5.0 %R=0.500
New Transformer.2486715 phases=1 windings=3 Xhl=1.200 Xht=1.200 Xlt=0.600
~ wdg=1 bus=25527-9361977.1 conn=wye Kv=7.9674 Kva=10.0 %R=0.500
~ wdg=2 bus=2486715-9361978.1.4 conn=wye Kv=0.1100 Kva=10.0 %R=0.500
~ wdg=3 bus=2486715-9361978.4.2 conn=wye Kv=0.1100 Kva=10.0 %R=0.500
New Transformer.2486624 phases=1 windings=3 Xhl=1.200 Xht=1.200 Xlt=0.600
~ wdg=1 bus=25527-9362028.1 conn=wye Kv=7.9674 Kva=10.0 %R=0.500
~ wdg=2 bus=2486624-9362028v.1.4 conn=wye Kv=0.1100 Kva=10.0 %R=0.500
~ wdg=3 bus=2486624-9362028v.4.2 conn=wye Kv=0.1100 Kva=10.0 %R=0.500
New Transformer.2486728 phases=3 windings=2 Xhl=1.200
~ wdg=1 bus=25527-9362328.1.2.3 conn=delta Kv=13.8 Kva=500.0 %R=0.500
~ wdg=2 bus=2486728-9362328v.1.2.3.4 conn=wye Kv=0.2200 Kva=500.0 %R=0.500
New Transformer.2486956 phases=3 windings=2 Xhl=1.200
~ wdg=1 bus=25527-9363731.1.2.3 conn=delta Kv=13.8 Kva=30.0 %R=0.500
~ wdg=2 bus=2486956-9363732.1.2.3.4 conn=wye Kv=0.2200 Kva=30.0 %R=0.500
New Transformer.2486927 phases=3 windings=2 Xhl=1.200
~ wdg=1 bus=25527-9363736.1.2.3 conn=delta Kv=13.8 Kva=45.0 %R=0.500
~ wdg=2 bus=2486927-9363737.1.2.3.4 conn=wye Kv=0.2200 Kva=45.0 %R=0.500
New Transformer.2487017 phases=1 windings=3 Xhl=1.200 Xht=1.200 Xlt=0.600
~ wdg=1 bus=25527-9363738.3 conn=wye Kv=7.9674 Kva=10.0 %R=0.500
~ wdg=2 bus=2487017-9363738v.1.4 conn=wye Kv=0.1100 Kva=10.0 %R=0.500
~ wdg=3 bus=2487017-9363738v.4.2 conn=wye Kv=0.1100 Kva=10.0 %R=0.500
New Transformer.2486916 phases=1 windings=3 Xhl=1.200 Xht=1.200 Xlt=0.600
~ wdg=1 bus=25527-9363739.2 conn=wye Kv=7.9674 Kva=10.0 %R=0.500
~ wdg=2 bus=2486916-9363739v.1.4 conn=wye Kv=0.1100 Kva=10.0 %R=0.500
~ wdg=3 bus=2486916-9363739v.4.2 conn=wye Kv=0.1100 Kva=10.0 %R=0.500
New Transformer.2486942 phases=1 windings=3 Xhl=1.200 Xht=1.200 Xlt=0.600
~ wdg=1 bus=25527-9363741.2 conn=wye Kv=7.9674 Kva=5.0 %R=0.500
~ wdg=2 bus=2486942-9363741v.1.4 conn=wye Kv=0.1100 Kva=5.0 %R=0.500
~ wdg=3 bus=2486942-9363741v.4.2 conn=wye Kv=0.1100 Kva=5.0 %R=0.500
New Transformer.2486988 phases=3 windings=2 Xhl=1.200
~ wdg=1 bus=25527-9363824.1.2.3 conn=delta Kv=13.8 Kva=45.0 %R=0.500
~ wdg=2 bus=2486988-9363825.1.2.3.4 conn=wye Kv=0.2200 Kva=45.0 %R=0.500
New Transformer.2486917 phases=3 windings=2 Xhl=1.200
~ wdg=1 bus=25527-9363826.1.2.3 conn=delta Kv=13.8 Kva=112.5 %R=0.500
~ wdg=2 bus=2486917-9363827.1.2.3.4 conn=wye Kv=0.2200 Kva=112.5 %R=0.500
New Transformer.2486920 phases=3 windings=2 Xhl=1.200
~ wdg=1 bus=25527-9363828.1.2.3 conn=delta Kv=13.8 Kva=45.0 %R=0.500
~ wdg=2 bus=2486920-9363829.1.2.3.4 conn=wye Kv=0.2200 Kva=45.0 %R=0.500
New Transformer.2486936 phases=3 windings=2 Xhl=1.200
~ wdg=1 bus=25527-9363830.1.2.3 conn=delta Kv=13.8 Kva=75.0 %R=0.500
~ wdg=2 bus=2486936-9363831.1.2.3.4 conn=wye Kv=0.2200 Kva=75.0 %R=0.500
New Transformer.2486896 phases=1 windings=3 Xhl=1.200 Xht=1.200 Xlt=0.600
~ wdg=1 bus=25527-9363920.2 conn=wye Kv=7.9674 Kva=10.0 %R=0.500
~ wdg=2 bus=2486896-9363920v.1.4 conn=wye Kv=0.1100 Kva=10.0 %R=0.500
~ wdg=3 bus=2486896-9363920v.4.2 conn=wye Kv=0.1100 Kva=10.0 %R=0.500
New Transformer.2486898 phases=3 windings=2 Xhl=1.200
~ wdg=1 bus=25527-9363929.1.2.3 conn=delta Kv=13.8 Kva=15.0 %R=0.500
~ wdg=2 bus=2486898-9363930.1.2.3.4 conn=wye Kv=0.2200 Kva=15.0 %R=0.500
New Transformer.2487016 phases=3 windings=2 Xhl=1.200
~ wdg=1 bus=25527-9363959.1.2.3 conn=delta Kv=13.8 Kva=30.0 %R=0.500
~ wdg=2 bus=2487016-9363959v.1.2.3.4 conn=wye Kv=0.2200 Kva=30.0 %R=0.500
New Transformer.2933050 phases=3 windings=2 Xhl=1.200
~ wdg=1 bus=25527-9364058.1.2.3 conn=delta Kv=13.8 Kva=45.0 %R=0.500
~ wdg=2 bus=2933050-9364059.1.2.3.4 conn=wye Kv=0.2200 Kva=45.0 %R=0.500
New Transformer.2486999 phases=3 windings=2 Xhl=1.200
~ wdg=1 bus=25527-9364155.1.2.3 conn=delta Kv=13.8 Kva=75.0 %R=0.500
~ wdg=2 bus=2486999-9364156.1.2.3.4 conn=wye Kv=0.2200 Kva=75.0 %R=0.500
New Transformer.2486899 phases=3 windings=2 Xhl=1.200
~ wdg=1 bus=25527-9364157.1.2.3 conn=delta Kv=13.8 Kva=112.5 %R=0.500
~ wdg=2 bus=2486899-9364158.1.2.3.4 conn=wye Kv=0.2200 Kva=112.5 %R=0.500
New Transformer.2486978 phases=1 windings=3 Xhl=1.200 Xht=1.200 Xlt=0.600
~ wdg=1 bus=25527-9364164.3 conn=wye Kv=7.9674 Kva=15.0 %R=0.500
~ wdg=2 bus=2486978-9364165.1.4 conn=wye Kv=0.1100 Kva=15.0 %R=0.500
~ wdg=3 bus=2486978-9364165.4.2 conn=wye Kv=0.1100 Kva=15.0 %R=0.500
New Transformer.3112074 phases=3 windings=2 Xhl=1.200
~ wdg=1 bus=25527-9364247.1.2.3 conn=delta Kv=13.8 Kva=75.0 %R=0.500
~ wdg=2 bus=3112074-9364247v.1.2.3.4 conn=wye Kv=0.2200 Kva=75.0 %R=0.500
New Transformer.3020552 phases=1 windings=3 Xhl=1.200 Xht=1.200 Xlt=0.600
~ wdg=1 bus=25527-9364248.1 conn=wye Kv=7.9674 Kva=45.0 %R=0.500
~ wdg=2 bus=3020552-9364248v.1.4 conn=wye Kv=0.1100 Kva=45.0 %R=0.500
~ wdg=3 bus=3020552-9364248v.4.2 conn=wye Kv=0.1100 Kva=45.0 %R=0.500
New Transformer.3122739 phases=1 windings=3 Xhl=1.200 Xht=1.200 Xlt=0.600
~ wdg=1 bus=25527-9364299.1 conn=wye Kv=7.9674 Kva=10.0 %R=0.500
~ wdg=2 bus=3122739-9364299v.1.4 conn=wye Kv=0.1100 Kva=10.0 %R=0.500
~ wdg=3 bus=3122739-9364299v.4.2 conn=wye Kv=0.1100 Kva=10.0 %R=0.500
New Transformer.2486940 phases=1 windings=3 Xhl=1.200 Xht=1.200 Xlt=0.600
~ wdg=1 bus=25527-9364335.2 conn=wye Kv=7.9674 Kva=10.0 %R=0.500
~ wdg=2 bus=2486940-9364335v.1.4 conn=wye Kv=0.1100 Kva=10.0 %R=0.500
~ wdg=3 bus=2486940-9364335v.4.2 conn=wye Kv=0.1100 Kva=10.0 %R=0.500
New Transformer.2486922 phases=3 windings=2 Xhl=1.200
~ wdg=1 bus=25527-9364358.1.2.3 conn=delta Kv=13.8 Kva=30.0 %R=0.500
~ wdg=2 bus=2486922-9364359.1.2.3.4 conn=wye Kv=0.2200 Kva=30.0 %R=0.500
New Transformer.2486944 phases=3 windings=2 Xhl=1.200
~ wdg=1 bus=25527-9364374.1.2.3 conn=delta Kv=13.8 Kva=45.0 %R=0.500
~ wdg=2 bus=2486944-11777086.1.2.3.4 conn=wye Kv=0.2200 Kva=45.0 %R=0.500
New Transformer.2486982 phases=3 windings=2 Xhl=1.200
~ wdg=1 bus=25527-9364477.1.2.3 conn=delta Kv=13.8 Kva=75.0 %R=0.500
~ wdg=2 bus=2486982-9364478.1.2.3.4 conn=wye Kv=0.2200 Kva=75.0 %R=0.500
New Transformer.2486962 phases=1 windings=3 Xhl=1.200 Xht=1.200 Xlt=0.600
~ wdg=1 bus=25527-9364479.2 conn=wye Kv=7.9674 Kva=15.0 %R=0.500
~ wdg=2 bus=2486962-9364480.1.4 conn=wye Kv=0.1100 Kva=15.0 %R=0.500
~ wdg=3 bus=2486962-9364480.4.2 conn=wye Kv=0.1100 Kva=15.0 %R=0.500
New Transformer.2486998 phases=1 windings=3 Xhl=1.200 Xht=1.200 Xlt=0.600
~ wdg=1 bus=25527-9364481.2 conn=wye Kv=7.9674 Kva=10.0 %R=0.500
~ wdg=2 bus=2486998-9364482.1.4 conn=wye Kv=0.1100 Kva=10.0 %R=0.500
~ wdg=3 bus=2486998-9364482.4.2 conn=wye Kv=0.1100 Kva=10.0 %R=0.500
New Transformer.2486932 phases=3 windings=2 Xhl=1.200
~ wdg=1 bus=25527-9364485.1.2.3 conn=delta Kv=13.8 Kva=75.0 %R=0.500
~ wdg=2 bus=2486932-9364486.1.2.3.4 conn=wye Kv=0.2200 Kva=75.0 %R=0.500
New Transformer.2487009 phases=3 windings=2 Xhl=1.200
~ wdg=1 bus=25527-9364487.1.2.3 conn=delta Kv=13.8 Kva=112.5 %R=0.500
~ wdg=2 bus=2487009-9364488.1.2.3.4 conn=wye Kv=0.2200 Kva=112.5 %R=0.500
New Transformer.2487001 phases=1 windings=3 Xhl=1.200 Xht=1.200 Xlt=0.600
~ wdg=1 bus=25527-9364489.3 conn=wye Kv=7.9674 Kva=15.0 %R=0.500
~ wdg=2 bus=2487001-9364490.1.4 conn=wye Kv=0.1100 Kva=15.0 %R=0.500
~ wdg=3 bus=2487001-9364490.4.2 conn=wye Kv=0.1100 Kva=15.0 %R=0.500
New Transformer.2487029 phases=3 windings=2 Xhl=1.200
~ wdg=1 bus=25527-9364497.1.2.3 conn=delta Kv=13.8 Kva=15.0 %R=0.500
~ wdg=2 bus=2487029-9364498.1.2.3.4 conn=wye Kv=0.2200 Kva=15.0 %R=0.500
New Transformer.2487027 phases=1 windings=3 Xhl=1.200 Xht=1.200 Xlt=0.600
~ wdg=1 bus=25527-9364593.2 conn=wye Kv=7.9674 Kva=10.0 %R=0.500
~ wdg=2 bus=2487027-9364594.1.4 conn=wye Kv=0.1100 Kva=10.0 %R=0.500
~ wdg=3 bus=2487027-9364594.4.2 conn=wye Kv=0.1100 Kva=10.0 %R=0.500
New Transformer.3043785 phases=1 windings=3 Xhl=1.200 Xht=1.200 Xlt=0.600
~ wdg=1 bus=25527-9364604.1 conn=wye Kv=7.9674 Kva=10.0 %R=0.500
~ wdg=2 bus=3043785-9364604v.1.4 conn=wye Kv=0.1100 Kva=10.0 %R=0.500
~ wdg=3 bus=3043785-9364604v.4.2 conn=wye Kv=0.1100 Kva=10.0 %R=0.500
New Transformer.2487000 phases=3 windings=2 Xhl=1.200
~ wdg=1 bus=25527-9364624.1.2.3 conn=delta Kv=13.8 Kva=112.5 %R=0.500
~ wdg=2 bus=2487000-9364625.1.2.3.4 conn=wye Kv=0.2200 Kva=112.5 %R=0.500
New Transformer.2487015 phases=3 windings=2 Xhl=1.200
~ wdg=1 bus=25527-9364627.1.2.3 conn=delta Kv=13.8 Kva=30.0 %R=0.500
~ wdg=2 bus=2487015-9364627v.1.2.3.4 conn=wye Kv=0.2200 Kva=30.0 %R=0.500
New Transformer.2486931 phases=3 windings=2 Xhl=1.200
~ wdg=1 bus=25527-9364704.1.2.3 conn=delta Kv=13.8 Kva=45.0 %R=0.500
~ wdg=2 bus=2486931-9364705.1.2.3.4 conn=wye Kv=0.2200 Kva=45.0 %R=0.500
New Transformer.3097944 phases=3 windings=2 Xhl=1.200
~ wdg=1 bus=25527-9364742.1.2.3 conn=delta Kv=13.8 Kva=75.0 %R=0.500
~ wdg=2 bus=3097944-9364743.1.2.3.4 conn=wye Kv=0.2200 Kva=75.0 %R=0.500
New Transformer.3097369 phases=3 windings=2 Xhl=1.200
~ wdg=1 bus=25527-9364761.1.2.3 conn=delta Kv=13.8 Kva=45.0 %R=0.500
~ wdg=2 bus=3097369-9364762.1.2.3.4 conn=wye Kv=0.2200 Kva=45.0 %R=0.500
New Transformer.2486915 phases=1 windings=3 Xhl=1.200 Xht=1.200 Xlt=0.600
~ wdg=1 bus=25527-9364767.2 conn=wye Kv=7.9674 Kva=10.0 %R=0.500
~ wdg=2 bus=2486915-9364768.1.4 conn=wye Kv=0.1100 Kva=10.0 %R=0.500
~ wdg=3 bus=2486915-9364768.4.2 conn=wye Kv=0.1100 Kva=10.0 %R=0.500
New Transformer.2486986 phases=3 windings=2 Xhl=1.200
~ wdg=1 bus=25527-9364804.1.2.3 conn=delta Kv=13.8 Kva=30.0 %R=0.500
~ wdg=2 bus=2486986-9364805.1.2.3.4 conn=wye Kv=0.2200 Kva=30.0 %R=0.500
New Transformer.2486924 phases=1 windings=3 Xhl=1.200 Xht=1.200 Xlt=0.600
~ wdg=1 bus=25527-9364814.2 conn=wye Kv=7.9674 Kva=10.0 %R=0.500
~ wdg=2 bus=2486924-9364814v.1.4 conn=wye Kv=0.1100 Kva=10.0 %R=0.500
~ wdg=3 bus=2486924-9364814v.4.2 conn=wye Kv=0.1100 Kva=10.0 %R=0.500
New Transformer.2486961 phases=3 windings=2 Xhl=1.200
~ wdg=1 bus=25527-9364941.1.2.3 conn=delta Kv=13.8 Kva=112.5 %R=0.500
~ wdg=2 bus=2486961-9364942.1.2.3.4 conn=wye Kv=0.2200 Kva=112.5 %R=0.500
New Transformer.2486905 phases=1 windings=3 Xhl=1.200 Xht=1.200 Xlt=0.600
~ wdg=1 bus=25527-9365030.2 conn=wye Kv=7.9674 Kva=10.0 %R=0.500
~ wdg=2 bus=2486905-9365031.1.4 conn=wye Kv=0.1100 Kva=10.0 %R=0.500
~ wdg=3 bus=2486905-9365031.4.2 conn=wye Kv=0.1100 Kva=10.0 %R=0.500
New Transformer.2486979 phases=1 windings=3 Xhl=1.200 Xht=1.200 Xlt=0.600
~ wdg=1 bus=25527-9365047.2 conn=wye Kv=7.9674 Kva=10.0 %R=0.500
~ wdg=2 bus=2486979-9365047v.1.4 conn=wye Kv=0.1100 Kva=10.0 %R=0.500
~ wdg=3 bus=2486979-9365047v.4.2 conn=wye Kv=0.1100 Kva=10.0 %R=0.500
New Transformer.2486983 phases=3 windings=2 Xhl=1.200
~ wdg=1 bus=25527-9365077.1.2.3 conn=delta Kv=13.8 Kva=112.5 %R=0.500
~ wdg=2 bus=2486983-9365078.1.2.3.4 conn=wye Kv=0.2200 Kva=112.5 %R=0.500
New Transformer.2486987 phases=3 windings=2 Xhl=1.200
~ wdg=1 bus=25527-9365079.1.2.3 conn=delta Kv=13.8 Kva=75.0 %R=0.500
~ wdg=2 bus=2486987-9365080.1.2.3.4 conn=wye Kv=0.2200 Kva=75.0 %R=0.500
New Transformer.2486903 phases=3 windings=2 Xhl=1.200
~ wdg=1 bus=25527-9365081.1.2.3 conn=delta Kv=13.8 Kva=30.0 %R=0.500
~ wdg=2 bus=2486903-9365081v.1.2.3.4 conn=wye Kv=0.2200 Kva=30.0 %R=0.500
New Transformer.2486919 phases=3 windings=2 Xhl=1.200
~ wdg=1 bus=25527-9365084.1.2.3 conn=delta Kv=13.8 Kva=45.0 %R=0.500
~ wdg=2 bus=2486919-9365085.1.2.3.4 conn=wye Kv=0.2200 Kva=45.0 %R=0.500
New Transformer.2486963 phases=3 windings=2 Xhl=1.200
~ wdg=1 bus=25527-9365166.1.2.3 conn=delta Kv=13.8 Kva=75.0 %R=0.500
~ wdg=2 bus=2486963-9365167.1.2.3.4 conn=wye Kv=0.2200 Kva=75.0 %R=0.500
New Transformer.2487033 phases=3 windings=2 Xhl=1.200
~ wdg=1 bus=25527-9365168.1.2.3 conn=delta Kv=13.8 Kva=75.0 %R=0.500
~ wdg=2 bus=2487033-9365169.1.2.3.4 conn=wye Kv=0.2200 Kva=75.0 %R=0.500
New Transformer.2486918 phases=3 windings=2 Xhl=1.200
~ wdg=1 bus=25527-9365170.1.2.3 conn=delta Kv=13.8 Kva=112.5 %R=0.500
~ wdg=2 bus=2486918-9365171.1.2.3.4 conn=wye Kv=0.2200 Kva=112.5 %R=0.500
New Transformer.2486957 phases=3 windings=2 Xhl=1.200
~ wdg=1 bus=25527-9365172.1.2.3 conn=delta Kv=13.8 Kva=75.0 %R=0.500
~ wdg=2 bus=2486957-9365173.1.2.3.4 conn=wye Kv=0.2200 Kva=75.0 %R=0.500
New Transformer.2487032 phases=3 windings=2 Xhl=1.200
~ wdg=1 bus=25527-9365209.1.2.3 conn=delta Kv=13.8 Kva=150.0 %R=0.500
~ wdg=2 bus=2487032-9365210.1.2.3.4 conn=wye Kv=0.2200 Kva=150.0 %R=0.500
New Transformer.2486966 phases=1 windings=3 Xhl=1.200 Xht=1.200 Xlt=0.600
~ wdg=1 bus=25527-9365262.2 conn=wye Kv=7.9674 Kva=10.0 %R=0.500
~ wdg=2 bus=2486966-9365263.1.4 conn=wye Kv=0.1100 Kva=10.0 %R=0.500
~ wdg=3 bus=2486966-9365263.4.2 conn=wye Kv=0.1100 Kva=10.0 %R=0.500
New Transformer.2486895 phases=1 windings=3 Xhl=1.200 Xht=1.200 Xlt=0.600
~ wdg=1 bus=25527-9365264.2 conn=wye Kv=7.9674 Kva=10.0 %R=0.500
~ wdg=2 bus=2486895-9365265.1.4 conn=wye Kv=0.1100 Kva=10.0 %R=0.500
~ wdg=3 bus=2486895-9365265.4.2 conn=wye Kv=0.1100 Kva=10.0 %R=0.500
New Transformer.2487035 phases=3 windings=2 Xhl=1.200
~ wdg=1 bus=25527-9365294.1.2.3 conn=delta Kv=13.8 Kva=15.0 %R=0.500
~ wdg=2 bus=2487035-9365295.1.2.3.4 conn=wye Kv=0.2200 Kva=15.0 %R=0.500
New Transformer.2487028 phases=3 windings=2 Xhl=1.200
~ wdg=1 bus=25527-9365300.1.2.3 conn=delta Kv=13.8 Kva=112.5 %R=0.500
~ wdg=2 bus=2487028-9365300v.1.2.3.4 conn=wye Kv=0.2200 Kva=112.5 %R=0.500
New Transformer.2486955 phases=3 windings=2 Xhl=1.200
~ wdg=1 bus=25527-9365307.1.2.3 conn=delta Kv=13.8 Kva=45.0 %R=0.500
~ wdg=2 bus=2486955-9365308.1.2.3.4 conn=wye Kv=0.2200 Kva=45.0 %R=0.500
New Transformer.2486926 phases=3 windings=2 Xhl=1.200
~ wdg=1 bus=25527-9365310.1.2.3 conn=delta Kv=13.8 Kva=30.0 %R=0.500
~ wdg=2 bus=2486926-9365310v.1.2.3.4 conn=wye Kv=0.2200 Kva=30.0 %R=0.500
New Transformer.2487031 phases=3 windings=2 Xhl=1.200
~ wdg=1 bus=25527-9365348.1.2.3 conn=delta Kv=13.8 Kva=45.0 %R=0.500
~ wdg=2 bus=2487031-9365349.1.2.3.4 conn=wye Kv=0.2200 Kva=45.0 %R=0.500
New Transformer.2487034 phases=1 windings=3 Xhl=1.200 Xht=1.200 Xlt=0.600
~ wdg=1 bus=25527-9365355.2 conn=wye Kv=7.9674 Kva=5.0 %R=0.500
~ wdg=2 bus=2487034-9365355v.1.4 conn=wye Kv=0.1100 Kva=5.0 %R=0.500
~ wdg=3 bus=2487034-9365355v.4.2 conn=wye Kv=0.1100 Kva=5.0 %R=0.500
New Transformer.2486964 phases=3 windings=2 Xhl=1.200
~ wdg=1 bus=25527-9363735.1.2.3 conn=delta Kv=13.8 Kva=150.0 %R=0.500
~ wdg=2 bus=2486964-9363735v.1.2.3.4 conn=wye Kv=0.2200 Kva=150.0 %R=0.500
New Transformer.2435272 phases=3 windings=2 Xhl=1.200
~ wdg=1 bus=25529-9048982.1.2.3 conn=delta Kv=13.8 Kva=45.0 %R=0.500
~ wdg=2 bus=2435272-9048982v.1.2.3.4 conn=wye Kv=0.2200 Kva=45.0 %R=0.500
New Transformer.2486638 phases=3 windings=2 Xhl=1.200
~ wdg=1 bus=25526-9361371.1.2.3 conn=delta Kv=13.8 Kva=30.0 %R=0.500
~ wdg=2 bus=2486638-9361371v.1.2.3.4 conn=wye Kv=0.2200 Kva=30.0 %R=0.500
New Transformer.3208012 phases=3 windings=2 Xhl=1.200
~ wdg=1 bus=25529-13153064.1.2.3 conn=delta Kv=13.8 Kva=112.5 %R=0.500
~ wdg=2 bus=3208012-13153064v.1.2.3.4 conn=wye Kv=0.2200 Kva=112.5 %R=0.500
New Transformer.2639444 phases=3 windings=2 Xhl=1.200
~ wdg=1 bus=25528-10152031.1.2.3 conn=delta Kv=13.8 Kva=30.0 %R=0.500
~ wdg=2 bus=2639444-10152031v.1.2.3.4 conn=wye Kv=0.2200 Kva=30.0 %R=0.500
New Transformer.2640095 phases=1 windings=3 Xhl=1.200 Xht=1.200 Xlt=0.600
~ wdg=1 bus=25528-10149878.1 conn=wye Kv=7.9674 Kva=5.0 %R=0.500
~ wdg=2 bus=2640095-10149878v.1.4 conn=wye Kv=0.1100 Kva=5.0 %R=0.500
~ wdg=3 bus=2640095-10149878v.4.2 conn=wye Kv=0.1100 Kva=5.0 %R=0.500
New Transformer.2486984 phases=3 windings=2 Xhl=1.200
~ wdg=1 bus=25527-9364163.1.2.3 conn=delta Kv=13.8 Kva=30.0 %R=0.500
~ wdg=2 bus=2486984-9364163v.1.2.3.4 conn=wye Kv=0.2200 Kva=30.0 %R=0.500
New Transformer.2486985 phases=3 windings=2 Xhl=1.200
~ wdg=1 bus=25527-9365086.1.2.3 conn=delta Kv=13.8 Kva=300.0 %R=0.500
~ wdg=2 bus=2486985-9365086v.1.2.3.4 conn=wye Kv=0.2200 Kva=300.0 %R=0.500
New Transformer.2486989 phases=3 windings=2 Xhl=1.200
~ wdg=1 bus=25527-9365087.1.2.3 conn=delta Kv=13.8 Kva=75.0 %R=0.500
~ wdg=2 bus=2486989-9365087v.1.2.3.4 conn=wye Kv=0.2200 Kva=75.0 %R=0.500
New Transformer.2486990 phases=3 windings=2 Xhl=1.200
~ wdg=1 bus=25527-9363956.1.2.3 conn=delta Kv=13.8 Kva=15.0 %R=0.500
~ wdg=2 bus=2486990-9363956v.1.2.3.4 conn=wye Kv=0.2200 Kva=15.0 %R=0.500
New Transformer.3170818 phases=3 windings=2 Xhl=1.200
~ wdg=1 bus=25526-12810564.1.2.3 conn=delta Kv=13.8 Kva=300.0 %R=0.500
~ wdg=2 bus=3170818-12810564v.1.2.3.4 conn=wye Kv=0.2200 Kva=300.0 %R=0.500
New Transformer.2486639 phases=3 windings=2 Xhl=1.200
~ wdg=1 bus=25526-9363451.1.2.3 conn=delta Kv=13.8 Kva=150.0 %R=0.500
~ wdg=2 bus=2486639-9363451v.1.2.3.4 conn=wye Kv=0.2200 Kva=150.0 %R=0.500
New Transformer.2435233 phases=3 windings=2 Xhl=1.200
~ wdg=1 bus=25529-9044343.1.2.3 conn=delta Kv=13.8 Kva=45.0 %R=0.500
~ wdg=2 bus=2435233-9044343v.1.2.3.4 conn=wye Kv=0.2200 Kva=45.0 %R=0.500
New Transformer.2640269 phases=3 windings=2 Xhl=1.200
~ wdg=1 bus=25528-10149897.1.2.3 conn=delta Kv=13.8 Kva=30.0 %R=0.500
~ wdg=2 bus=2640269-10149897v.1.2.3.4 conn=wye Kv=0.2200 Kva=30.0 %R=0.500
New Transformer.2639657 phases=3 windings=2 Xhl=1.200
~ wdg=1 bus=25528-10150021.1.2.3 conn=delta Kv=13.8 Kva=30.0 %R=0.500
~ wdg=2 bus=2639657-10150021v.1.2.3.4 conn=wye Kv=0.2200 Kva=30.0 %R=0.500
New Transformer.2486925 phases=3 windings=2 Xhl=1.200
~ wdg=1 bus=25527-9365309.1.2.3 conn=delta Kv=13.8 Kva=300.0 %R=0.500
~ wdg=2 bus=2486925-9365309v.1.2.3.4 conn=wye Kv=0.2200 Kva=300.0 %R=0.500
New Transformer.3117792 phases=3 windings=2 Xhl=1.200
~ wdg=1 bus=25528-12463999.1.2.3 conn=delta Kv=13.8 Kva=45.0 %R=0.500
~ wdg=2 bus=3117792-12463999v.1.2.3.4 conn=wye Kv=0.2200 Kva=45.0 %R=0.500
New Transformer.3010643 phases=1 windings=3 Xhl=1.200 Xht=1.200 Xlt=0.600
~ wdg=1 bus=25528-11782367.1 conn=wye Kv=7.9674 Kva=5.0 %R=0.500
~ wdg=2 bus=3010643-11782367v.1.4 conn=wye Kv=0.1100 Kva=5.0 %R=0.500
~ wdg=3 bus=3010643-11782367v.4.2 conn=wye Kv=0.1100 Kva=5.0 %R=0.500
New Transformer.2486664 phases=3 windings=2 Xhl=1.200
~ wdg=1 bus=25526-9362163.1.2.3 conn=delta Kv=13.8 Kva=225.0 %R=0.500
~ wdg=2 bus=2486664-9362163v.1.2.3.4 conn=wye Kv=0.2200 Kva=225.0 %R=0.500
New Transformer.2435190 phases=3 windings=2 Xhl=1.200
~ wdg=1 bus=25529-9048983.1.2.3 conn=delta Kv=13.8 Kva=45.0 %R=0.500
~ wdg=2 bus=2435190-9048983v.1.2.3.4 conn=wye Kv=0.2200 Kva=45.0 %R=0.500
New Transformer.3010532 phases=3 windings=2 Xhl=1.200
~ wdg=1 bus=25529-9050394.1.2.3 conn=delta Kv=13.8 Kva=45.0 %R=0.500
~ wdg=2 bus=3010532-9050394v.1.2.3.4 conn=wye Kv=0.2200 Kva=45.0 %R=0.500
New Transformer.2486690 phases=3 windings=2 Xhl=1.200
~ wdg=1 bus=25526-9362670.1.2.3 conn=delta Kv=13.8 Kva=150.0 %R=0.500
~ wdg=2 bus=2486690-9362670v.1.2.3.4 conn=wye Kv=0.2200 Kva=150.0 %R=0.500
New Transformer.3010642 phases=1 windings=3 Xhl=1.200 Xht=1.200 Xlt=0.600
~ wdg=1 bus=25528-11782372.1 conn=wye Kv=7.9674 Kva=5.0 %R=0.500
~ wdg=2 bus=3010642-11782372v.1.4 conn=wye Kv=0.1100 Kva=5.0 %R=0.500
~ wdg=3 bus=3010642-11782372v.4.2 conn=wye Kv=0.1100 Kva=5.0 %R=0.500
New Transformer.3015126 phases=1 windings=3 Xhl=1.200 Xht=1.200 Xlt=0.600
~ wdg=1 bus=25528-11805513.2 conn=wye Kv=7.9674 Kva=10.0 %R=0.500
~ wdg=2 bus=3015126-11805521.1.4 conn=wye Kv=0.1100 Kva=10.0 %R=0.500
~ wdg=3 bus=3015126-11805521.4.2 conn=wye Kv=0.1100 Kva=10.0 %R=0.500
New Transformer.2486572 phases=3 windings=2 Xhl=1.200
~ wdg=1 bus=25526-9362329.1.2.3 conn=delta Kv=13.8 Kva=45.0 %R=0.500
~ wdg=2 bus=2486572-9362329v.1.2.3.4 conn=wye Kv=0.2200 Kva=45.0 %R=0.500
New Transformer.2640136 phases=3 windings=2 Xhl=1.200
~ wdg=1 bus=25528-10149871.1.2.3 conn=delta Kv=13.8 Kva=30.0 %R=0.500
~ wdg=2 bus=2640136-10149871v.1.2.3.4 conn=wye Kv=0.2200 Kva=30.0 %R=0.500
New Transformer.3012749 phases=1 windings=3 Xhl=1.200 Xht=1.200 Xlt=0.600
~ wdg=1 bus=25529-11792518.2 conn=wye Kv=7.9674 Kva=15.0 %R=0.500
~ wdg=2 bus=3012749-11792518v.1.4 conn=wye Kv=0.1100 Kva=15.0 %R=0.500
~ wdg=3 bus=3012749-11792518v.4.2 conn=wye Kv=0.1100 Kva=15.0 %R=0.500
New Transformer.2486574 phases=3 windings=2 Xhl=1.200
~ wdg=1 bus=25526-9362960.1.2.3 conn=delta Kv=13.8 Kva=45.0 %R=0.500
~ wdg=2 bus=2486574-9362960v.1.2.3.4 conn=wye Kv=0.2200 Kva=45.0 %R=0.500
New Transformer.2486629 phases=3 windings=2 Xhl=1.200
~ wdg=1 bus=25526-9362669.1.2.3 conn=delta Kv=13.8 Kva=75.0 %R=0.500
~ wdg=2 bus=2486629-9362669v.1.2.3.4 conn=wye Kv=0.2200 Kva=75.0 %R=0.500
New Transformer.3072102 phases=3 windings=2 Xhl=1.200
~ wdg=1 bus=25527-12162106.1.2.3 conn=delta Kv=13.8 Kva=75.0 %R=0.500
~ wdg=2 bus=3072102-12162106v.1.2.3.4 conn=wye Kv=0.2200 Kva=75.0 %R=0.500
New Transformer.3014324 phases=1 windings=3 Xhl=1.200 Xht=1.200 Xlt=0.600
~ wdg=1 bus=25528-10147579.2 conn=wye Kv=7.9674 Kva=15.0 %R=0.500
~ wdg=2 bus=3014324-10147579v.1.4 conn=wye Kv=0.1100 Kva=15.0 %R=0.500
~ wdg=3 bus=3014324-10147579v.4.2 conn=wye Kv=0.1100 Kva=15.0 %R=0.500
New Transformer.2487030 phases=3 windings=2 Xhl=1.200
~ wdg=1 bus=25527-9365083.1.2.3 conn=delta Kv=13.8 Kva=45.0 %R=0.500
~ wdg=2 bus=2487030-9365083v.1.2.3.4 conn=wye Kv=0.2200 Kva=45.0 %R=0.500
New Transformer.2639665 phases=3 windings=2 Xhl=1.200
~ wdg=1 bus=25528-10153197.1.2.3 conn=delta Kv=13.8 Kva=30.0 %R=0.500
~ wdg=2 bus=2639665-10153197v.1.2.3.4 conn=wye Kv=0.2200 Kva=30.0 %R=0.500
New Transformer.2486647 phases=3 windings=2 Xhl=1.200
~ wdg=1 bus=25526-9363447.1.2.3 conn=delta Kv=13.8 Kva=30.0 %R=0.500
~ wdg=2 bus=2486647-9363447v.1.2.3.4 conn=wye Kv=0.2200 Kva=30.0 %R=0.500
New Transformer.3010594 phases=1 windings=3 Xhl=1.200 Xht=1.200 Xlt=0.600
~ wdg=1 bus=25529-11424017.2 conn=wye Kv=7.9674 Kva=5.0 %R=0.500
~ wdg=2 bus=3010594-11424017v.1.4 conn=wye Kv=0.1100 Kva=5.0 %R=0.500
~ wdg=3 bus=3010594-11424017v.4.2 conn=wye Kv=0.1100 Kva=5.0 %R=0.500
New Transformer.2486590 phases=1 windings=3 Xhl=1.200 Xht=1.200 Xlt=0.600
~ wdg=1 bus=25527-9363446.1 conn=wye Kv=7.9674 Kva=10.0 %R=0.500
~ wdg=2 bus=2486590-9363446v.1.4 conn=wye Kv=0.1100 Kva=10.0 %R=0.500
~ wdg=3 bus=2486590-9363446v.4.2 conn=wye Kv=0.1100 Kva=10.0 %R=0.500
New Transformer.2639864 phases=3 windings=2 Xhl=1.200
~ wdg=1 bus=25528-10148359.1.2.3 conn=delta Kv=13.8 Kva=45.0 %R=0.500
~ wdg=2 bus=2639864-10148359v.1.2.3.4 conn=wye Kv=0.2200 Kva=45.0 %R=0.500
New Transformer.3010529 phases=1 windings=3 Xhl=1.200 Xht=1.200 Xlt=0.600
~ wdg=1 bus=25529-10150377.3 conn=wye Kv=7.9674 Kva=15.0 %R=0.500
~ wdg=2 bus=3010529-10150377v.1.4 conn=wye Kv=0.1100 Kva=15.0 %R=0.500
~ wdg=3 bus=3010529-10150377v.4.2 conn=wye Kv=0.1100 Kva=15.0 %R=0.500
New Transformer.3010545 phases=3 windings=2 Xhl=1.200
~ wdg=1 bus=25527-9362424.1.2.3 conn=delta Kv=13.8 Kva=15.0 %R=0.500
~ wdg=2 bus=3010545-9362425.1.2.3.4 conn=wye Kv=0.2200 Kva=15.0 %R=0.500
New Transformer.2486641 phases=3 windings=2 Xhl=1.200
~ wdg=1 bus=25526-9361986.1.2.3 conn=delta Kv=13.8 Kva=30.0 %R=0.500
~ wdg=2 bus=2486641-9361986v.1.2.3.4 conn=wye Kv=0.2200 Kva=30.0 %R=0.500
New Transformer.2487012 phases=3 windings=2 Xhl=1.200
~ wdg=1 bus=25527-9364161.1.2.3 conn=delta Kv=13.8 Kva=112.5 %R=0.500
~ wdg=2 bus=2487012-9364161v.1.2.3.4 conn=wye Kv=0.2200 Kva=112.5 %R=0.500
New Transformer.2964671 phases=3 windings=2 Xhl=1.200
~ wdg=1 bus=25527-11565766.1.2.3 conn=delta Kv=13.8 Kva=75.0 %R=0.500
~ wdg=2 bus=2964671-11565766v.1.2.3.4 conn=wye Kv=0.2200 Kva=75.0 %R=0.500
New Transformer.2486633 phases=3 windings=2 Xhl=1.200
~ wdg=1 bus=25526-9363448.1.2.3 conn=delta Kv=13.8 Kva=75.0 %R=0.500
~ wdg=2 bus=2486633-9363448v.1.2.3.4 conn=wye Kv=0.2200 Kva=75.0 %R=0.500
New Transformer.2639611 phases=1 windings=3 Xhl=1.200 Xht=1.200 Xlt=0.600
...